L6/1726528/Reguladores.dss
! REGULADORES — gerados de UNREMT
! vreg = 122 V e band = 2 V — AJUSTES TIPICOS, nao de campo.
! kVA = 5000 adotado; a BDGD nao traz a potencia do regulador.
! O ptratio segue a tensao de cada alimentador (TP para 120 V).
New Transformer.REG_368033881_1 phases=1 windings=2 XHL=0.04
~ buses=[segm_368033930.1 segm_368033869.1] conns=[wye wye]
~ kVs=[7.9674 7.9674] kVAs=[5000 5000] %Rs=[0.01 0.01]
~ maxtap=1.10 mintap=0.90 numtaps=32
New RegControl.RC_REG_368033881_1 transformer=REG_368033881_1 winding=2 vreg=122 band=2 ptratio=66.4 delay=15 maxtapchange=1
New Transformer.REG_368033881_2 phases=1 windings=2 XHL=0.04
~ buses=[segm_368033930.2 segm_368033869.2] conns=[wye wye]
~ kVs=[7.9674 7.9674] kVAs=[5000 5000] %Rs=[0.01 0.01]
~ maxtap=1.10 mintap=0.90 numtaps=32
New RegControl.RC_REG_368033881_2 transformer=REG_368033881_2 winding=2 vreg=122 band=2 ptratio=66.4 delay=15 maxtapchange=1
New Transformer.REG_368033881_3 phases=1 windings=2 XHL=0.04
~ buses=[segm_368033930.3 segm_368033869.3] conns=[wye wye]
~ kVs=[7.9674 7.9674] kVAs=[5000 5000] %Rs=[0.01 0.01]
~ maxtap=1.10 mintap=0.90 numtaps=32
New RegControl.RC_REG_368033881_3 transformer=REG_368033881_3 winding=2 vreg=122 band=2 ptratio=66.4 delay=15 maxtapchange=1
New Transformer.REG_368033955_1 phases=1 windings=2 XHL=0.04
~ buses=[segm_368034004.1 segm_368033943.1] conns=[wye wye]
~ kVs=[7.9674 7.9674] kVAs=[5000 5000] %Rs=[0.01 0.01]
~ maxtap=1.10 mintap=0.90 numtaps=32
New RegControl.RC_REG_368033955_1 transformer=REG_368033955_1 winding=2 vreg=122 band=2 ptratio=66.4 delay=15 maxtapchange=1
New Transformer.REG_368033955_2 phases=1 windings=2 XHL=0.04
~ buses=[segm_368034004.2 segm_368033943.2] conns=[wye wye]
~ kVs=[7.9674 7.9674] kVAs=[5000 5000] %Rs=[0.01 0.01]
~ maxtap=1.10 mintap=0.90 numtaps=32
New RegControl.RC_REG_368033955_2 transformer=REG_368033955_2 winding=2 vreg=122 band=2 ptratio=66.4 delay=15 maxtapchange=1
New Transformer.REG_368033955_3 phases=1 windings=2 XHL=0.04
~ buses=[segm_368034004.3 segm_368033943.3] conns=[wye wye]
~ kVs=[7.9674 7.9674] kVAs=[5000 5000] %Rs=[0.01 0.01]
~ maxtap=1.10 mintap=0.90 numtaps=32
New RegControl.RC_REG_368033955_3 transformer=REG_368033955_3 winding=2 vreg=122 band=2 ptratio=66.4 delay=15 maxtapchange=1
New Transformer.REG_1175139291_1 phases=1 windings=2 XHL=0.04
~ buses=[segm_1175139355.1 segm_1175139298.1] conns=[wye wye]
~ kVs=[7.9674 7.9674] kVAs=[5000 5000] %Rs=[0.01 0.01]
~ maxtap=1.10 mintap=0.90 numtaps=32
New RegControl.RC_REG_1175139291_1 transformer=REG_1175139291_1 winding=2 vreg=122 band=2 ptratio=66.4 delay=15 maxtapchange=1
New Transformer.REG_1175139291_2 phases=1 windings=2 XHL=0.04
~ buses=[segm_1175139355.2 segm_1175139298.2] conns=[wye wye]
~ kVs=[7.9674 7.9674] kVAs=[5000 5000] %Rs=[0.01 0.01]
~ maxtap=1.10 mintap=0.90 numtaps=32
New RegControl.RC_REG_1175139291_2 transformer=REG_1175139291_2 winding=2 vreg=122 band=2 ptratio=66.4 delay=15 maxtapchange=1
New Transformer.REG_1175139291_3 phases=1 windings=2 XHL=0.04
~ buses=[segm_1175139355.3 segm_1175139298.3] conns=[wye wye]
~ kVs=[7.9674 7.9674] kVAs=[5000 5000] %Rs=[0.01 0.01]
~ maxtap=1.10 mintap=0.90 numtaps=32
New RegControl.RC_REG_1175139291_3 transformer=REG_1175139291_3 winding=2 vreg=122 band=2 ptratio=66.4 delay=15 maxtapchange=1
New Transformer.REG_2424610301_1 phases=1 windings=2 XHL=0.04
~ buses=[segm_2424610359.1 segm_2424610308.1] conns=[wye wye]
~ kVs=[7.9674 7.9674] kVAs=[5000 5000] %Rs=[0.01 0.01]
~ maxtap=1.10 mintap=0.90 numtaps=32
New RegControl.RC_REG_2424610301_1 transformer=REG_2424610301_1 winding=2 vreg=122 band=2 ptratio=66.4 delay=15 maxtapchange=1
New Transformer.REG_2424610301_2 phases=1 windings=2 XHL=0.04
~ buses=[segm_2424610359.2 segm_2424610308.2] conns=[wye wye]
~ kVs=[7.9674 7.9674] kVAs=[5000 5000] %Rs=[0.01 0.01]
~ maxtap=1.10 mintap=0.90 numtaps=32
New RegControl.RC_REG_2424610301_2 transformer=REG_2424610301_2 winding=2 vreg=122 band=2 ptratio=66.4 delay=15 maxtapchange=1
New Transformer.REG_2424610301_3 phases=1 windings=2 XHL=0.04
~ buses=[segm_2424610359.3 segm_2424610308.3] conns=[wye wye]
~ kVs=[7.9674 7.9674] kVAs=[5000 5000] %Rs=[0.01 0.01]
~ maxtap=1.10 mintap=0.90 numtaps=32
New RegControl.RC_REG_2424610301_3 transformer=REG_2424610301_3 winding=2 vreg=122 band=2 ptratio=66.4 delay=15 maxtapchange=1
